* 
* Copyright 2020 by Artisan Components, Inc.
* This file has been provided pursuant to a License Agreement
* containing restrictions on its use.  This file contains valuable
* trade secrets and proprietary information of Artisan Components,
* Inc. and is protected by law.
* 
* Generated by bif2cdl v3.3e
* Version: 2009Q1V1
* Name: High Speed/Density Dual Port SRAM Generator|IBM CMRF8SF-LPVT Process
* Comment: 
* Configuration:  -instname "Mem_cnnin2" -words 256 -bits 64 -frequ\
* Configuration: ency 1 -ring_width 4.0 -mux 4 -write_mask off -wp_\
* Configuration: size 8 -top_layer "met5-8" -power_type rings -hori\
* Configuration: z met3 -vert met4 -cust_comment "" -bus_notation o\
* Configuration: n -left_bus_delim "[" -right_bus_delim "]" -pwr_gn\
* Configuration: d_rename "VDD:VDD,GND:VSS" -prefix "" -pin_space 0\
* Configuration: .0 -name_case upper -check_instname on -diodes on \
* Configuration: -inside_ring_type GND -drive 6 -dpccm on -asvm on \
* Configuration: -corners ff_1p32v_m40c,ff_1p65v_125c,tt_1p2v_25c,s\
* Configuration: s_1p08v_125c
* Codefile: 
* 
*
** begin lvs.header
** $Revision: 1.1 $
** end lvs.header
*.BIPOLAR
*.DIOAREA
*.DIOPERI
*
****
.SUBCKT Mem_cnnin2FCBWM4 BWEN BWENA BWENB D Q VDD VSS
** Mem_cnnin2FCBWM4: 2 flat devices **
d1 VSS Q tdndsx AREA=0.1024P PERIM=1.28U
d2 VSS D tdndsx AREA=0.1024P PERIM=1.28U
.ENDS Mem_cnnin2FCBWM4
****
.SUBCKT Mem_cnnin2FCBWM4A BWENA BWENB D Q VDD VSS
** Mem_cnnin2FCBWM4A: 2 flat devices **
XI0_0 BWENA BWENA BWENB D Q VDD VSS Mem_cnnin2FCBWM4
.ENDS Mem_cnnin2FCBWM4A
****
.SUBCKT Mem_cnnin2FCBWM4B BWENA BWENB D Q VDD VSS
** Mem_cnnin2FCBWM4B: 2 flat devices **
XI0_0 BWENB BWENA BWENB D Q VDD VSS Mem_cnnin2FCBWM4
.ENDS Mem_cnnin2FCBWM4B
****
.SUBCKT Mem_cnnin2IO4 BWE BWEN D DPN DPU DW DW_ GTP2 GTPA GTPB OEA_ OEB_ OE_ Q
+  SP STUBWEA STUBWEB STUBWEIA STUBWEIB WE WEA WEB VDD VSS
** Mem_cnnin2IO4: 58 flat devices **
m1 QI DPU VSS VSS NFET L=0.12U W=1.25U
m10 QPD OEI_ VSS VSS lpnfet L=0.12U W=0.28U
m11 QIL QI VDD VDD lppfet L=0.12U W=0.33U
m12 QIL QI VSS VSS lpnfet L=0.12U W=0.26U
m13 SPN SP VDD VDD lppfet L=0.12U W=0.17U
m14 SPN SP VSS VSS lpnfet L=0.12U W=0.16U
m15 DWPD GTPND DWI VSS lpnfet L=0.12U W=0.75U
m16 DWPD DW VDD VDD lppfet L=0.22U W=0.16U
m17 DWPD DW VSS VSS lpnfet L=0.42U W=0.16U
m18 DWPD GTP2 DWI VDD lppfet L=0.12U W=0.88U
m19 DW_PU GTPND DNWI VSS lpnfet L=0.12U W=0.75U
m2 QI DPN VDD VDD PFET L=0.12U W=2.4U
m20 DW_PU GTP2 DNWI VDD lppfet L=0.12U W=0.88U
m21 GTPND GTP2 VDD VDD lppfet L=0.12U W=0.2U
m22 GTPND GTP2 VSS VSS lpnfet L=0.12U W=0.19U
m23 DI N56 VDD VDD lppfet L=0.12U W=0.72U
m24 DI N56 VSS VSS lpnfet L=0.12U W=0.43U
m25 DNN DI VDD VDD lppfet L=0.12U W=0.55U
m26 DNN DI VSS VSS lpnfet L=0.12U W=0.31U
m27 WEI N61 VDD VDD lppfet L=0.12U W=0.63U
m28 WEI N61 VSS VSS lpnfet L=0.12U W=0.44U
m29 OEI OEI_ VDD VDD lppfet L=0.12U W=0.3U
m3 Q QPU VDD VDD lppfet L=0.12U W=3.96U
m30 OEI OEI_ VSS VSS lpnfet L=0.12U W=0.21U
m31 QI SP N87 VDD lppfet L=0.12U W=0.72U
m32 N87 QIL VDD VDD lppfet L=0.12U W=0.72U
m33 QI SPN N86 VSS lpnfet L=0.12U W=0.72U
m34 N86 QIL VSS VSS lpnfet L=0.12U W=0.72U
m35 N43 OE_ VDD VDD lppfet L=0.12U W=0.22U
m36 N43 OE_ VSS VSS lpnfet L=0.12U W=0.16U
m37 N61 WE VDD VDD lppfet L=0.12U W=0.22U
m38 N61 WE VSS VSS lpnfet L=0.12U W=0.18U
m39 DWI WEI VDD VDD lppfet L=0.12U W=1.24U
m4 Q QPD VSS VSS lpnfet L=0.12U W=2.6U
m40 N88 WEI VSS VSS lpnfet L=0.12U W=0.93U
m41 DWI DI VDD VDD lppfet L=0.12U W=1.24U
m42 DWI DI N88 VSS lpnfet L=0.12U W=0.93U
m43 DNWI WEI VDD VDD lppfet L=0.12U W=1.24U
m44 N89 WEI VSS VSS lpnfet L=0.12U W=0.93U
m45 DNWI DNN VDD VDD lppfet L=0.12U W=1.24U
m46 DNWI DNN N89 VSS lpnfet L=0.12U W=0.93U
m47 N56 D VDD VDD lppfet L=0.12U W=0.23U
m48 N56 D VSS VSS lpnfet L=0.12U W=0.16U
m49 QPU OEI_ QI VDD PFET L=0.12U W=0.16U
m5 OEI_ N43 VDD VDD lppfet L=0.12U W=0.7U
m50 QPD OEI QI VSS NFET L=0.12U W=0.17U
m51 DW DWPD VDD VDD PFET L=0.12U W=3.14U
m52 DW DWPD VSS VSS NFET L=0.12U W=2.12U
m53 DW_PU DW_ VDD VDD lppfet L=0.22U W=0.16U
m54 DW_PU DW_ VSS VSS lpnfet L=0.46U W=0.16U
m55 DW_ DW_PU VDD VDD PFET L=0.12U W=3.14U
m56 DW_ DW_PU VSS VSS NFET L=0.12U W=2.12U
m57 BWE BWEN VDD VDD lppfet L=0.12U W=0.7U
m58 BWE BWEN VSS VSS lpnfet L=0.12U W=0.48U
m6 OEI_ N43 VSS VSS lpnfet L=0.12U W=0.48U
m7 QPD OEI_ QI VDD PFET L=0.12U W=1.78U
m8 QPU OEI QI VSS NFET L=0.12U W=1.18U
m9 QPU OEI VDD VDD lppfet L=0.12U W=0.47U
.ENDS Mem_cnnin2IO4
****
.SUBCKT Mem_cnnin2IOXX_A D DPN DPU DW DW_ GTPA GTPB OEA_ OEB_ Q SP STUBWEIA
+  STUBWEIB VDD VSS
** Mem_cnnin2IOXX_A: 58 flat devices **
XI0_0 BWE VSS D DPN DPU DW DW_ GTPA GTPA GTPB OEA_ OEB_ OEA_ Q SP STUBWEIA
+  STUBWEIB STUBWEIA STUBWEIB STUBWEIA STUBWEIA STUBWEIB VDD VSS Mem_cnnin2IO4
.ENDS Mem_cnnin2IOXX_A
****
.SUBCKT Mem_cnnin2IOXX_B D DPN DPU DW DW_ GTPA GTPB OEA_ OEB_ Q SP STUBWEIA
+  STUBWEIB VDD VSS
** Mem_cnnin2IOXX_B: 58 flat devices **
XI0_0 BWE VSS D DPN DPU DW DW_ GTPB GTPA GTPB OEA_ OEB_ OEB_ Q SP STUBWEIA
+  STUBWEIB STUBWEIA STUBWEIB STUBWEIB STUBWEIA STUBWEIB VDD VSS Mem_cnnin2IO4
.ENDS Mem_cnnin2IOXX_B
****
.SUBCKT Mem_cnnin2SA4 DPN DPU DR DR_ DW DW_ GTP GTPA GTPB SP VDD VSS
** Mem_cnnin2SA4: 41 flat devices **
m1 N23 SRCD VSS VSS lpnfet L=0.12U W=1.07U
m10 DPN SDN VDD VDD lppfet L=0.12U W=0.81U
m11 DPN SDN VSS VSS lpnfet L=0.12U W=2.06U
m12 SP SPN VDD VDD lppfet L=0.12U W=0.95U
m13 SP SPN VSS VSS lpnfet L=0.12U W=0.78U
m14 GTPN GTP VDD VDD lppfet L=0.12U W=0.3U
m15 GTPN GTP VSS VSS lpnfet L=0.12U W=0.17U
m16 ND1 GTPN VDD VDD lppfet L=0.12U W=0.2U
m17 ND1 GTPN VSS VSS lpnfet L=0.12U W=0.16U
m18 ND2 ND1 VDD VDD lppfet L=0.12U W=0.68U
m19 ND2 ND1 VSS VSS lpnfet L=0.12U W=0.4U
m2 SD SP DR VDD lppfet L=0.12U W=1.65U
m20 N41 DRP VSS VSS lpnfet L=0.12U W=0.6U
m21 SPN GTPN N41 VSS lpnfet L=0.12U W=0.41U
m22 SPN DRP VDD VDD lppfet L=0.12U W=0.4U
m23 SPN GTPN VDD VDD lppfet L=0.12U W=0.24U
m24 DRP ND2 VDD VDD lppfet L=0.12U W=1.47U
m25 DRP ND2 VSS VSS lpnfet L=0.12U W=1.35U
m26 DR_ DRP VDD VDD lppfet L=0.12U W=1.74U
m27 DR DRP VDD VDD lppfet L=0.12U W=1.74U
m28 DR DRP DR_ VDD lppfet L=0.12U W=2.04U
m29 SD_ SD SRC VSS lpnfet L=0.19U W=3.6U
m3 SD_ SP DR_ VDD lppfet L=0.12U W=1.65U
m30 SD SD_ SRC VSS lpnfet L=0.19U W=3.6U
m33 SRC GTPN N23 VSS lpnfet L=0.12U W=1.17U
m34 SRCD SRCPU VDD VDD lppfet L=0.12U W=0.46U
m35 SRCD SRCPU VSS VSS lpnfet L=0.12U W=0.24U
m36 SRCPU DRP VDD VDD lppfet L=0.12U W=0.43U
m37 SRCPU DRP VSS VSS lpnfet L=0.12U W=0.24U
m38 VDD SRCPU SRC VSS lpnfet L=0.12U W=1.18U
m39 SD SRCD SD_ VDD lppfet L=0.12U W=0.5U
m4 SD_ SD VDD VDD lppfet L=0.12U W=0.5U
m40 SRC GTPN N53 VSS lpnfet L=0.12U W=1.17U
m41 N53 SRCD VSS VSS lpnfet L=0.12U W=1.07U
m5 SD SD_ VDD VDD lppfet L=0.12U W=0.5U
m6 SDN SD VDD VDD lppfet L=0.12U W=0.86U
m7 SDN SD VSS VSS lpnfet L=0.12U W=0.42U
m8 DPU SD_ VDD VDD lppfet L=0.12U W=0.86U
m9 DPU SD_ VSS VSS lpnfet L=0.12U W=0.42U
m9998 SD_ SPN DR_ VSS lpnfet W=0.28U L=0.12U
m9999 SD SPN DR VSS lpnfet W=0.28U L=0.12U
.ENDS Mem_cnnin2SA4
****
.SUBCKT Mem_cnnin2SAX_A DPN DPU DR DR_ DW DW_ GTPA GTPB SP VDD VSS
** Mem_cnnin2SAX_A: 41 flat devices **
XI0_0 DPN DPU DR DR_ DW DW_ GTPA GTPA GTPB SP VDD VSS Mem_cnnin2SA4
.ENDS Mem_cnnin2SAX_A
****
.SUBCKT Mem_cnnin2SAX_B DPN DPU DR DR_ DW DW_ GTPA GTPB SP VDD VSS
** Mem_cnnin2SAX_B: 41 flat devices **
XI0_0 DPN DPU DR DR_ DW DW_ GTPB GTPA GTPB SP VDD VSS Mem_cnnin2SA4
.ENDS Mem_cnnin2SAX_B
****
.SUBCKT Mem_cnnin2CD A0 A0A A0A_ A0B A0B_ A0_ BL0 BL0_ BL1 BL1_ DR DRA DRA_
+  DRB DRB_ DRSA DR_ DW DWA DWA_ DWB DWB_ DWSA DW_ G0 G1 GTP GTPA GTPB STUBDRA
+  STUBDRA_ STUBDRB STUBDRB_ STUBDWA STUBDWA_ STUBDWB STUBDWB_ YPA0_0 YPA0_1
+  YPA0_2 YPA0_3 YPA1_0 YPA1_1 YPA1_2 YPA1_3 YPB0_0 YPB0_1 YPB0_2 YPB0_3
+  YPB1_0 YPB1_1 YPB1_2 YPB1_3 VDD VSS
** Mem_cnnin2CD: 47 flat devices **
m1 BL0_ CS0 DR_ VDD PFET L=0.12U W=2.28U
m10 BL1_ BL1PD VSS VSS NFET L=0.12U W=4.8U
m11 BL1_PD CS1 DW_ VDD PFET L=0.12U W=1.84U
m12 BL1_PD CS1 VSS VSS lpnfet L=0.12U W=0.64U
m13 BL1_ CS1 DR_ VDD PFET L=0.12U W=2.28U
m14 BL1PD CS1 DW VDD PFET L=0.12U W=1.84U
m15 BL1PD CS1 VSS VSS lpnfet L=0.12U W=0.64U
m16 BL1 BL1_PD VSS VSS NFET L=0.12U W=4.8U
m17 BL0_ YI VDD VDD lppfet L=0.12U W=4.14U
m18 BL0 YI VDD VDD lppfet L=0.12U W=4.14U
m19 BL0 YI BL0_ VDD lppfet L=0.12U W=4.14U
m2 BL0 BL0PD VSS VSS NFET L=0.12U W=4.8U
m20 BL1 YI VDD VDD lppfet L=0.12U W=4.14U
m21 BL1_ YI VDD VDD lppfet L=0.12U W=4.14U
m22 BL1_ YI BL1 VDD lppfet L=0.12U W=4.14U
m23 CS0 A0_ VDD VDD lppfet L=0.12U W=1.04U
m24 N91 A0_ VSS VSS lpnfet L=0.12U W=1.45U
m25 CS0 YI VDD VDD lppfet L=0.12U W=1.04U
m26 CS0 YI N91 VSS lpnfet L=0.12U W=1.45U
m27 CS1 A0 VDD VDD lppfet L=0.12U W=1.04U
m28 N92 A0 VSS VSS lpnfet L=0.12U W=1.45U
m29 CS1 YI VDD VDD lppfet L=0.12U W=1.04U
m3 BL0_PD CS0 DW VDD PFET L=0.12U W=1.84U
m30 CS1 YI N92 VSS lpnfet L=0.12U W=1.45U
m31 YCDSEL_ G0 VDD VDD lppfet L=0.12U W=0.3U
m32 N93 G0 VSS VSS lpnfet L=0.12U W=0.38U
m33 YCDSEL_ G1 VDD VDD lppfet L=0.12U W=0.3U
m34 YCDSEL_ G1 N93 VSS lpnfet L=0.12U W=0.38U
m35 YCDSEL YCDSEL_ VDD VDD lppfet L=0.12U W=0.24U
m36 YCDSEL YCDSEL_ VSS VSS lpnfet L=0.12U W=0.16U
m37 N63 YCDSEL_ GTP VDD lppfet L=0.12U W=0.3U
m38 N63 YCDSEL_ VSS VSS lpnfet L=0.12U W=0.3U
m39 YI WL1_EN_ VDD VDD lppfet L=0.12U W=3.62U
m4 BL0_PD CS0 VSS VSS lpnfet L=0.12U W=0.64U
m40 YI WL1_EN_ VSS VSS lpnfet L=0.12U W=2.9U
m41 WL1_EN_ N63 VDD VDD lppfet L=0.12U W=1.48U
m42 WL1_EN_ N63 VSS VSS lpnfet L=0.12U W=0.94U
m43 N63 YCDSEL GTP VSS lpnfet L=0.12U W=0.3U
m5 BL0 CS0 DR VDD PFET L=0.12U W=2.28U
m6 BL0PD CS0 DW_ VDD PFET L=0.12U W=1.84U
m7 BL0PD CS0 VSS VSS lpnfet L=0.12U W=0.64U
m8 BL0_ BL0_PD VSS VSS NFET L=0.12U W=4.8U
m9 BL1 CS1 DR VDD PFET L=0.12U W=2.28U
m9996 BL1_ BL1PD DR_ VSS lpnfet W=0.28U L=0.12U
m9997 BL1 BL1_PD DR VSS lpnfet W=0.28U L=0.12U
m9998 BL0_ BL0_PD DR_ VSS lpnfet W=0.28U L=0.12U
m9999 BL0 BL0PD DR VSS lpnfet W=0.28U L=0.12U
.ENDS Mem_cnnin2CD
****
.SUBCKT Mem_cnnin2MXCD_EVEN_RIGHT A0A A0A_ A0B A0B_ BLA0 BLA0_ BLA1 BLA1_ BLA2
+  BLA2_ BLA3 BLA3_ BLB0 BLB0_ BLB1 BLB1_ BLB2 BLB2_ BLB3 BLB3_ DRSA_0 DRSA_1
+  DRSA_2 DRSA_3 DWSA_0 DWSA_1 DWSA_2 DWSA_3 GTPA GTPB STUBDRA STUBDRA_
+  STUBDRB STUBDRB_ STUBDWA STUBDWA_ STUBDWB STUBDWB_ YPA0_0 YPA0_1 YPA0_2
+  YPA0_3 YPA1_0 YPA1_1 YPA1_2 YPA1_3 YPB0_0 YPB0_1 YPB0_2 YPB0_3 YPB1_0
+  YPB1_1 YPB1_2 YPB1_3 VDD VSS
** Mem_cnnin2MXCD_EVEN_RIGHT: 188 flat devices **
XI0_0 A0A A0A A0A_ A0B A0B_ A0A_ BLA0 BLA0_ BLA1 BLA1_ DRSA_0 DRSA_0 DRSA_1
+  DRSA_3 DRSA_2 DRSA_0 DRSA_1 DWSA_0 DWSA_0 DWSA_1 DWSA_3 DWSA_2 DWSA_0
+  DWSA_1 YPA0_0 VDD GTPA GTPA GTPB DRSA_0 DRSA_1 DRSA_3 DRSA_2 DWSA_0 DWSA_1
+  DWSA_3 DWSA_2 YPA0_0 YPA0_1 YPA0_2 YPA0_3 YPA1_0 YPA1_1 YPA1_2 YPA1_3
+  YPB0_0 YPB0_1 YPB0_2 YPB0_3 YPB1_0 YPB1_1 YPB1_2 YPB1_3 VDD VSS
+  Mem_cnnin2CD
XI1_0 A0B A0A A0A_ A0B A0B_ A0B_ BLB0 BLB0_ BLB1 BLB1_ DRSA_3 DRSA_0 DRSA_1
+  DRSA_3 DRSA_2 DRSA_1 DRSA_2 DWSA_3 DWSA_0 DWSA_1 DWSA_3 DWSA_2 DWSA_1
+  DWSA_2 YPB0_0 VDD GTPB GTPA GTPB DRSA_0 DRSA_1 DRSA_3 DRSA_2 DWSA_0 DWSA_1
+  DWSA_3 DWSA_2 YPA0_0 YPA0_1 YPA0_2 YPA0_3 YPA1_0 YPA1_1 YPA1_2 YPA1_3
+  YPB0_0 YPB0_1 YPB0_2 YPB0_3 YPB1_0 YPB1_1 YPB1_2 YPB1_3 VDD VSS
+  Mem_cnnin2CD
XI2_0 A0B A0A A0A_ A0B A0B_ A0B_ BLB2 BLB2_ BLB3 BLB3_ DRSA_3 DRSA_0 DRSA_1
+  DRSA_3 DRSA_2 DRSA_2 DRSA_2 DWSA_3 DWSA_0 DWSA_1 DWSA_3 DWSA_2 DWSA_2
+  DWSA_2 YPB0_1 VDD GTPB GTPA GTPB DRSA_0 DRSA_1 DRSA_3 DRSA_2 DWSA_0 DWSA_1
+  DWSA_3 DWSA_2 YPA0_0 YPA0_1 YPA0_2 YPA0_3 YPA1_0 YPA1_1 YPA1_2 YPA1_3
+  YPB0_0 YPB0_1 YPB0_2 YPB0_3 YPB1_0 YPB1_1 YPB1_2 YPB1_3 VDD VSS
+  Mem_cnnin2CD
XI3_0 A0A A0A A0A_ A0B A0B_ A0A_ BLA2 BLA2_ BLA3 BLA3_ DRSA_0 DRSA_0 DRSA_1
+  DRSA_3 DRSA_2 DRSA_3 DRSA_1 DWSA_0 DWSA_0 DWSA_1 DWSA_3 DWSA_2 DWSA_3
+  DWSA_1 YPA0_1 VDD GTPA GTPA GTPB STUBDRA STUBDRA_ STUBDRB STUBDRB_ STUBDWA
+  STUBDWA_ STUBDWB STUBDWB_ YPA0_0 YPA0_1 YPA0_2 YPA0_3 YPA1_0 YPA1_1 YPA1_2
+  YPA1_3 YPB0_0 YPB0_1 YPB0_2 YPB0_3 YPB1_0 YPB1_1 YPB1_2 YPB1_3 VDD VSS
+  Mem_cnnin2CD
.ENDS Mem_cnnin2MXCD_EVEN_RIGHT
****
.SUBCKT Mem_cnnin2CCG BLA BLA_ BLB BLB_ WLA WLB VDD VSS
** Mem_cnnin2CCG: 8 flat devices **
m1 BLB WLB CORED VSS lpnfet L=0.13U W=0.16U
m2 BLB_ WLB CORED_ VSS lpnfet L=0.13U W=0.16U
m3 BLA WLA CORED VSS lpnfet L=0.13U W=0.16U
m4 BLA_ WLA CORED_ VSS lpnfet L=0.13U W=0.16U
m5 CORED_ CORED VDD VDD lppfet L=0.12U W=0.16U
m6 CORED_ CORED VSS VSS lpnfet L=0.12U W=0.8U
m7 CORED CORED_ VDD VDD lppfet L=0.12U W=0.16U
m8 CORED CORED_ VSS VSS lpnfet L=0.12U W=0.8U
.ENDS Mem_cnnin2CCG
****
.SUBCKT Mem_cnnin2CCP BLA BLA_ BLB BLB_ WLA WLB VDD VSS
** Mem_cnnin2CCP: 8 flat devices **
m1 BLB WLB CORED VSS lpnfet L=0.13U W=0.16U
m2 BLB_ WLB CORED_ VSS lpnfet L=0.13U W=0.16U
m3 BLA WLA CORED VSS lpnfet L=0.13U W=0.16U
m4 BLA_ WLA CORED_ VSS lpnfet L=0.13U W=0.16U
m5 CORED_ CORED VDD VDD lppfet L=0.12U W=0.16U
m6 CORED_ CORED VSS VSS lpnfet L=0.12U W=0.8U
m7 CORED CORED_ VDD VDD lppfet L=0.12U W=0.16U
m8 CORED CORED_ VSS VSS lpnfet L=0.12U W=0.8U
.ENDS Mem_cnnin2CCP
****
.SUBCKT Mem_cnnin2BIT_MUX_1 BLA_0 BLA_1 BLA_2 BLA_3 BLA__0 BLA__1 BLA__2
+  BLA__3 BLB_0 BLB_1 BLB_2 BLB_3 BLB__0 BLB__1 BLB__2 BLB__3 WLA WLB VDD VSS
** Mem_cnnin2BIT_MUX_1: 32 flat devices **
XI0_0 BLA_0 BLA__0 BLB_0 BLB__0 WLA WLB VDD VSS Mem_cnnin2CCG
XI1_0 BLA_1 BLA__1 BLB_1 BLB__1 WLA WLB VDD VSS Mem_cnnin2CCP
XI2_0 BLA_2 BLA__2 BLB_2 BLB__2 WLA WLB VDD VSS Mem_cnnin2CCP
XI3_0 BLA_3 BLA__3 BLB_3 BLB__3 WLA WLB VDD VSS Mem_cnnin2CCG
.ENDS Mem_cnnin2BIT_MUX_1
****
.SUBCKT Mem_cnnin2BIT_MUX_0 BLA_0 BLA_1 BLA_2 BLA_3 BLA__0 BLA__1 BLA__2
+  BLA__3 BLB_0 BLB_1 BLB_2 BLB_3 BLB__0 BLB__1 BLB__2 BLB__3 WLA WLB VDD VSS
** Mem_cnnin2BIT_MUX_0: 32 flat devices **
XI0_0 BLA_0 BLA__0 BLB_0 BLB__0 WLA WLB VDD VSS Mem_cnnin2CCG
XI1_0 BLA_1 BLA__1 BLB_1 BLB__1 WLA WLB VDD VSS Mem_cnnin2CCP
XI2_0 BLA_2 BLA__2 BLB_2 BLB__2 WLA WLB VDD VSS Mem_cnnin2CCP
XI3_0 BLA_3 BLA__3 BLB_3 BLB__3 WLA WLB VDD VSS Mem_cnnin2CCG
.ENDS Mem_cnnin2BIT_MUX_0
****
.SUBCKT Mem_cnnin2BIT_COL BLA_0 BLA_1 BLA_2 BLA_3 BLA__0 BLA__1 BLA__2 BLA__3
+  BLB_0 BLB_1 BLB_2 BLB_3 BLB__0 BLB__1 BLB__2 BLB__3 WLA_0 WLA_1 WLA_2 WLA_3
+  WLA_4 WLA_5 WLA_6 WLA_7 WLA_8 WLA_9 WLA_10 WLA_11 WLA_12 WLA_13 WLA_14
+  WLA_15 WLA_16 WLA_17 WLA_18 WLA_19 WLA_20 WLA_21 WLA_22 WLA_23 WLA_24
+  WLA_25 WLA_26 WLA_27 WLA_28 WLA_29 WLA_30 WLA_31 WLA_32 WLA_33 WLA_34
+  WLA_35 WLA_36 WLA_37 WLA_38 WLA_39 WLA_40 WLA_41 WLA_42 WLA_43 WLA_44
+  WLA_45 WLA_46 WLA_47 WLA_48 WLA_49 WLA_50 WLA_51 WLA_52 WLA_53 WLA_54
+  WLA_55 WLA_56 WLA_57 WLA_58 WLA_59 WLA_60 WLA_61 WLA_62 WLA_63 WLB_0 WLB_1
+  WLB_2 WLB_3 WLB_4 WLB_5 WLB_6 WLB_7 WLB_8 WLB_9 WLB_10 WLB_11 WLB_12 WLB_13
+  WLB_14 WLB_15 WLB_16 WLB_17 WLB_18 WLB_19 WLB_20 WLB_21 WLB_22 WLB_23
+  WLB_24 WLB_25 WLB_26 WLB_27 WLB_28 WLB_29 WLB_30 WLB_31 WLB_32 WLB_33
+  WLB_34 WLB_35 WLB_36 WLB_37 WLB_38 WLB_39 WLB_40 WLB_41 WLB_42 WLB_43
+  WLB_44 WLB_45 WLB_46 WLB_47 WLB_48 WLB_49 WLB_50 WLB_51 WLB_52 WLB_53
+  WLB_54 WLB_55 WLB_56 WLB_57 WLB_58 WLB_59 WLB_60 WLB_61 WLB_62 WLB_63 VDD
+  VSS
** Mem_cnnin2BIT_COL: 2048 flat devices **
XI0_0 BLA__0 BLA__1 BLA__2 BLA__3 BLA_0 BLA_1 BLA_2 BLA_3 BLB__0 BLB__1 BLB__2
+  BLB__3 BLB_0 BLB_1 BLB_2 BLB_3 WLA_0 WLB_0 VDD VSS Mem_cnnin2BIT_MUX_0
XI0_1 BLA__0 BLA__1 BLA__2 BLA__3 BLA_0 BLA_1 BLA_2 BLA_3 BLB__0 BLB__1 BLB__2
+  BLB__3 BLB_0 BLB_1 BLB_2 BLB_3 WLA_1 WLB_1 VDD VSS Mem_cnnin2BIT_MUX_1
XI0_10 BLA__0 BLA__1 BLA__2 BLA__3 BLA_0 BLA_1 BLA_2 BLA_3 BLB__0 BLB__1
+  BLB__2 BLB__3 BLB_0 BLB_1 BLB_2 BLB_3 WLA_10 WLB_10 VDD VSS
+  Mem_cnnin2BIT_MUX_0
XI0_11 BLA__0 BLA__1 BLA__2 BLA__3 BLA_0 BLA_1 BLA_2 BLA_3 BLB__0 BLB__1
+  BLB__2 BLB__3 BLB_0 BLB_1 BLB_2 BLB_3 WLA_11 WLB_11 VDD VSS
+  Mem_cnnin2BIT_MUX_1
XI0_12 BLA__0 BLA__1 BLA__2 BLA__3 BLA_0 BLA_1 BLA_2 BLA_3 BLB__0 BLB__1
+  BLB__2 BLB__3 BLB_0 BLB_1 BLB_2 BLB_3 WLA_12 WLB_12 VDD VSS
+  Mem_cnnin2BIT_MUX_0
XI0_13 BLA__0 BLA__1 BLA__2 BLA__3 BLA_0 BLA_1 BLA_2 BLA_3 BLB__0 BLB__1
+  BLB__2 BLB__3 BLB_0 BLB_1 BLB_2 BLB_3 WLA_13 WLB_13 VDD VSS
+  Mem_cnnin2BIT_MUX_1
XI0_14 BLA__0 BLA__1 BLA__2 BLA__3 BLA_0 BLA_1 BLA_2 BLA_3 BLB__0 BLB__1
+  BLB__2 BLB__3 BLB_0 BLB_1 BLB_2 BLB_3 WLA_14 WLB_14 VDD VSS
+  Mem_cnnin2BIT_MUX_0
XI0_15 BLA__0 BLA__1 BLA__2 BLA__3 BLA_0 BLA_1 BLA_2 BLA_3 BLB__0 BLB__1
+  BLB__2 BLB__3 BLB_0 BLB_1 BLB_2 BLB_3 WLA_15 WLB_15 VDD VSS
+  Mem_cnnin2BIT_MUX_1
XI0_16 BLA__0 BLA__1 BLA__2 BLA__3 BLA_0 BLA_1 BLA_2 BLA_3 BLB__0 BLB__1
+  BLB__2 BLB__3 BLB_0 BLB_1 BLB_2 BLB_3 WLA_16 WLB_16 VDD VSS
+  Mem_cnnin2BIT_MUX_0
XI0_17 BLA__0 BLA__1 BLA__2 BLA__3 BLA_0 BLA_1 BLA_2 BLA_3 BLB__0 BLB__1
+  BLB__2 BLB__3 BLB_0 BLB_1 BLB_2 BLB_3 WLA_17 WLB_17 VDD VSS
+  Mem_cnnin2BIT_MUX_1
XI0_18 BLA__0 BLA__1 BLA__2 BLA__3 BLA_0 BLA_1 BLA_2 BLA_3 BLB__0 BLB__1
+  BLB__2 BLB__3 BLB_0 BLB_1 BLB_2 BLB_3 WLA_18 WLB_18 VDD VSS
+  Mem_cnnin2BIT_MUX_0
XI0_19 BLA__0 BLA__1 BLA__2 BLA__3 BLA_0 BLA_1 BLA_2 BLA_3 BLB__0 BLB__1
+  BLB__2 BLB__3 BLB_0 BLB_1 BLB_2 BLB_3 WLA_19 WLB_19 VDD VSS
+  Mem_cnnin2BIT_MUX_1
XI0_2 BLA__0 BLA__1 BLA__2 BLA__3 BLA_0 BLA_1 BLA_2 BLA_3 BLB__0 BLB__1 BLB__2
+  BLB__3 BLB_0 BLB_1 BLB_2 BLB_3 WLA_2 WLB_2 VDD VSS Mem_cnnin2BIT_MUX_0
XI0_20 BLA__0 BLA__1 BLA__2 BLA__3 BLA_0 BLA_1 BLA_2 BLA_3 BLB__0 BLB__1
+  BLB__2 BLB__3 BLB_0 BLB_1 BLB_2 BLB_3 WLA_20 WLB_20 VDD VSS
+  Mem_cnnin2BIT_MUX_0
XI0_21 BLA__0 BLA__1 BLA__2 BLA__3 BLA_0 BLA_1 BLA_2 BLA_3 BLB__0 BLB__1
+  BLB__2 BLB__3 BLB_0 BLB_1 BLB_2 BLB_3 WLA_21 WLB_21 VDD VSS
+  Mem_cnnin2BIT_MUX_1
XI0_22 BLA__0 BLA__1 BLA__2 BLA__3 BLA_0 BLA_1 BLA_2 BLA_3 BLB__0 BLB__1
+  BLB__2 BLB__3 BLB_0 BLB_1 BLB_2 BLB_3 WLA_22 WLB_22 VDD VSS
+  Mem_cnnin2BIT_MUX_0
XI0_23 BLA__0 BLA__1 BLA__2 BLA__3 BLA_0 BLA_1 BLA_2 BLA_3 BLB__0 BLB__1
+  BLB__2 BLB__3 BLB_0 BLB_1 BLB_2 BLB_3 WLA_23 WLB_23 VDD VSS
+  Mem_cnnin2BIT_MUX_1
XI0_24 BLA__0 BLA__1 BLA__2 BLA__3 BLA_0 BLA_1 BLA_2 BLA_3 BLB__0 BLB__1
+  BLB__2 BLB__3 BLB_0 BLB_1 BLB_2 BLB_3 WLA_24 WLB_24 VDD VSS
+  Mem_cnnin2BIT_MUX_0
XI0_25 BLA__0 BLA__1 BLA__2 BLA__3 BLA_0 BLA_1 BLA_2 BLA_3 BLB__0 BLB__1
+  BLB__2 BLB__3 BLB_0 BLB_1 BLB_2 BLB_3 WLA_25 WLB_25 VDD VSS
+  Mem_cnnin2BIT_MUX_1
XI0_26 BLA__0 BLA__1 BLA__2 BLA__3 BLA_0 BLA_1 BLA_2 BLA_3 BLB__0 BLB__1
+  BLB__2 BLB__3 BLB_0 BLB_1 BLB_2 BLB_3 WLA_26 WLB_26 VDD VSS
+  Mem_cnnin2BIT_MUX_0
XI0_27 BLA__0 BLA__1 BLA__2 BLA__3 BLA_0 BLA_1 BLA_2 BLA_3 BLB__0 BLB__1
+  BLB__2 BLB__3 BLB_0 BLB_1 BLB_2 BLB_3 WLA_27 WLB_27 VDD VSS
+  Mem_cnnin2BIT_MUX_1
XI0_28 BLA__0 BLA__1 BLA__2 BLA__3 BLA_0 BLA_1 BLA_2 BLA_3 BLB__0 BLB__1
+  BLB__2 BLB__3 BLB_0 BLB_1 BLB_2 BLB_3 WLA_28 WLB_28 VDD VSS
+  Mem_cnnin2BIT_MUX_0
XI0_29 BLA__0 BLA__1 BLA__2 BLA__3 BLA_0 BLA_1 BLA_2 BLA_3 BLB__0 BLB__1
+  BLB__2 BLB__3 BLB_0 BLB_1 BLB_2 BLB_3 WLA_29 WLB_29 VDD VSS
+  Mem_cnnin2BIT_MUX_1
XI0_3 BLA__0 BLA__1 BLA__2 BLA__3 BLA_0 BLA_1 BLA_2 BLA_3 BLB__0 BLB__1 BLB__2
+  BLB__3 BLB_0 BLB_1 BLB_2 BLB_3 WLA_3 WLB_3 VDD VSS Mem_cnnin2BIT_MUX_1
XI0_30 BLA__0 BLA__1 BLA__2 BLA__3 BLA_0 BLA_1 BLA_2 BLA_3 BLB__0 BLB__1
+  BLB__2 BLB__3 BLB_0 BLB_1 BLB_2 BLB_3 WLA_30 WLB_30 VDD VSS
+  Mem_cnnin2BIT_MUX_0
XI0_31 BLA__0 BLA__1 BLA__2 BLA__3 BLA_0 BLA_1 BLA_2 BLA_3 BLB__0 BLB__1
+  BLB__2 BLB__3 BLB_0 BLB_1 BLB_2 BLB_3 WLA_31 WLB_31 VDD VSS
+  Mem_cnnin2BIT_MUX_1
XI0_33 BLA_0 BLA_1 BLA_2 BLA_3 BLA__0 BLA__1 BLA__2 BLA__3 BLB_0 BLB_1 BLB_2
+  BLB_3 BLB__0 BLB__1 BLB__2 BLB__3 WLA_32 WLB_32 VDD VSS Mem_cnnin2BIT_MUX_0
XI0_34 BLA_0 BLA_1 BLA_2 BLA_3 BLA__0 BLA__1 BLA__2 BLA__3 BLB_0 BLB_1 BLB_2
+  BLB_3 BLB__0 BLB__1 BLB__2 BLB__3 WLA_33 WLB_33 VDD VSS Mem_cnnin2BIT_MUX_1
XI0_35 BLA_0 BLA_1 BLA_2 BLA_3 BLA__0 BLA__1 BLA__2 BLA__3 BLB_0 BLB_1 BLB_2
+  BLB_3 BLB__0 BLB__1 BLB__2 BLB__3 WLA_34 WLB_34 VDD VSS Mem_cnnin2BIT_MUX_0
XI0_36 BLA_0 BLA_1 BLA_2 BLA_3 BLA__0 BLA__1 BLA__2 BLA__3 BLB_0 BLB_1 BLB_2
+  BLB_3 BLB__0 BLB__1 BLB__2 BLB__3 WLA_35 WLB_35 VDD VSS Mem_cnnin2BIT_MUX_1
XI0_37 BLA_0 BLA_1 BLA_2 BLA_3 BLA__0 BLA__1 BLA__2 BLA__3 BLB_0 BLB_1 BLB_2
+  BLB_3 BLB__0 BLB__1 BLB__2 BLB__3 WLA_36 WLB_36 VDD VSS Mem_cnnin2BIT_MUX_0
XI0_38 BLA_0 BLA_1 BLA_2 BLA_3 BLA__0 BLA__1 BLA__2 BLA__3 BLB_0 BLB_1 BLB_2
+  BLB_3 BLB__0 BLB__1 BLB__2 BLB__3 WLA_37 WLB_37 VDD VSS Mem_cnnin2BIT_MUX_1
XI0_39 BLA_0 BLA_1 BLA_2 BLA_3 BLA__0 BLA__1 BLA__2 BLA__3 BLB_0 BLB_1 BLB_2
+  BLB_3 BLB__0 BLB__1 BLB__2 BLB__3 WLA_38 WLB_38 VDD VSS Mem_cnnin2BIT_MUX_0
XI0_4 BLA__0 BLA__1 BLA__2 BLA__3 BLA_0 BLA_1 BLA_2 BLA_3 BLB__0 BLB__1 BLB__2
+  BLB__3 BLB_0 BLB_1 BLB_2 BLB_3 WLA_4 WLB_4 VDD VSS Mem_cnnin2BIT_MUX_0
XI0_40 BLA_0 BLA_1 BLA_2 BLA_3 BLA__0 BLA__1 BLA__2 BLA__3 BLB_0 BLB_1 BLB_2
+  BLB_3 BLB__0 BLB__1 BLB__2 BLB__3 WLA_39 WLB_39 VDD VSS Mem_cnnin2BIT_MUX_1
XI0_41 BLA_0 BLA_1 BLA_2 BLA_3 BLA__0 BLA__1 BLA__2 BLA__3 BLB_0 BLB_1 BLB_2
+  BLB_3 BLB__0 BLB__1 BLB__2 BLB__3 WLA_40 WLB_40 VDD VSS Mem_cnnin2BIT_MUX_0
XI0_42 BLA_0 BLA_1 BLA_2 BLA_3 BLA__0 BLA__1 BLA__2 BLA__3 BLB_0 BLB_1 BLB_2
+  BLB_3 BLB__0 BLB__1 BLB__2 BLB__3 WLA_41 WLB_41 VDD VSS Mem_cnnin2BIT_MUX_1
XI0_43 BLA_0 BLA_1 BLA_2 BLA_3 BLA__0 BLA__1 BLA__2 BLA__3 BLB_0 BLB_1 BLB_2
+  BLB_3 BLB__0 BLB__1 BLB__2 BLB__3 WLA_42 WLB_42 VDD VSS Mem_cnnin2BIT_MUX_0
XI0_44 BLA_0 BLA_1 BLA_2 BLA_3 BLA__0 BLA__1 BLA__2 BLA__3 BLB_0 BLB_1 BLB_2
+  BLB_3 BLB__0 BLB__1 BLB__2 BLB__3 WLA_43 WLB_43 VDD VSS Mem_cnnin2BIT_MUX_1
XI0_45 BLA_0 BLA_1 BLA_2 BLA_3 BLA__0 BLA__1 BLA__2 BLA__3 BLB_0 BLB_1 BLB_2
+  BLB_3 BLB__0 BLB__1 BLB__2 BLB__3 WLA_44 WLB_44 VDD VSS Mem_cnnin2BIT_MUX_0
XI0_46 BLA_0 BLA_1 BLA_2 BLA_3 BLA__0 BLA__1 BLA__2 BLA__3 BLB_0 BLB_1 BLB_2
+  BLB_3 BLB__0 BLB__1 BLB__2 BLB__3 WLA_45 WLB_45 VDD VSS Mem_cnnin2BIT_MUX_1
XI0_47 BLA_0 BLA_1 BLA_2 BLA_3 BLA__0 BLA__1 BLA__2 BLA__3 BLB_0 BLB_1 BLB_2
+  BLB_3 BLB__0 BLB__1 BLB__2 BLB__3 WLA_46 WLB_46 VDD VSS Mem_cnnin2BIT_MUX_0
XI0_48 BLA_0 BLA_1 BLA_2 BLA_3 BLA__0 BLA__1 BLA__2 BLA__3 BLB_0 BLB_1 BLB_2
+  BLB_3 BLB__0 BLB__1 BLB__2 BLB__3 WLA_47 WLB_47 VDD VSS Mem_cnnin2BIT_MUX_1
XI0_49 BLA_0 BLA_1 BLA_2 BLA_3 BLA__0 BLA__1 BLA__2 BLA__3 BLB_0 BLB_1 BLB_2
+  BLB_3 BLB__0 BLB__1 BLB__2 BLB__3 WLA_48 WLB_48 VDD VSS Mem_cnnin2BIT_MUX_0
XI0_5 BLA__0 BLA__1 BLA__2 BLA__3 BLA_0 BLA_1 BLA_2 BLA_3 BLB__0 BLB__1 BLB__2
+  BLB__3 BLB_0 BLB_1 BLB_2 BLB_3 WLA_5 WLB_5 VDD VSS Mem_cnnin2BIT_MUX_1
XI0_50 BLA_0 BLA_1 BLA_2 BLA_3 BLA__0 BLA__1 BLA__2 BLA__3 BLB_0 BLB_1 BLB_2
+  BLB_3 BLB__0 BLB__1 BLB__2 BLB__3 WLA_49 WLB_49 VDD VSS Mem_cnnin2BIT_MUX_1
XI0_51 BLA_0 BLA_1 BLA_2 BLA_3 BLA__0 BLA__1 BLA__2 BLA__3 BLB_0 BLB_1 BLB_2
+  BLB_3 BLB__0 BLB__1 BLB__2 BLB__3 WLA_50 WLB_50 VDD VSS Mem_cnnin2BIT_MUX_0
XI0_52 BLA_0 BLA_1 BLA_2 BLA_3 BLA__0 BLA__1 BLA__2 BLA__3 BLB_0 BLB_1 BLB_2
+  BLB_3 BLB__0 BLB__1 BLB__2 BLB__3 WLA_51 WLB_51 VDD VSS Mem_cnnin2BIT_MUX_1
XI0_53 BLA_0 BLA_1 BLA_2 BLA_3 BLA__0 BLA__1 BLA__2 BLA__3 BLB_0 BLB_1 BLB_2
+  BLB_3 BLB__0 BLB__1 BLB__2 BLB__3 WLA_52 WLB_52 VDD VSS Mem_cnnin2BIT_MUX_0
XI0_54 BLA_0 BLA_1 BLA_2 BLA_3 BLA__0 BLA__1 BLA__2 BLA__3 BLB_0 BLB_1 BLB_2
+  BLB_3 BLB__0 BLB__1 BLB__2 BLB__3 WLA_53 WLB_53 VDD VSS Mem_cnnin2BIT_MUX_1
XI0_55 BLA_0 BLA_1 BLA_2 BLA_3 BLA__0 BLA__1 BLA__2 BLA__3 BLB_0 BLB_1 BLB_2
+  BLB_3 BLB__0 BLB__1 BLB__2 BLB__3 WLA_54 WLB_54 VDD VSS Mem_cnnin2BIT_MUX_0
XI0_56 BLA_0 BLA_1 BLA_2 BLA_3 BLA__0 BLA__1 BLA__2 BLA__3 BLB_0 BLB_1 BLB_2
+  BLB_3 BLB__0 BLB__1 BLB__2 BLB__3 WLA_55 WLB_55 VDD VSS Mem_cnnin2BIT_MUX_1
XI0_57 BLA_0 BLA_1 BLA_2 BLA_3 BLA__0 BLA__1 BLA__2 BLA__3 BLB_0 BLB_1 BLB_2
+  BLB_3 BLB__0 BLB__1 BLB__2 BLB__3 WLA_56 WLB_56 VDD VSS Mem_cnnin2BIT_MUX_0
XI0_58 BLA_0 BLA_1 BLA_2 BLA_3 BLA__0 BLA__1 BLA__2 BLA__3 BLB_0 BLB_1 BLB_2
+  BLB_3 BLB__0 BLB__1 BLB__2 BLB__3 WLA_57 WLB_57 VDD VSS Mem_cnnin2BIT_MUX_1
XI0_59 BLA_0 BLA_1 BLA_2 BLA_3 BLA__0 BLA__1 BLA__2 BLA__3 BLB_0 BLB_1 BLB_2
+  BLB_3 BLB__0 BLB__1 BLB__2 BLB__3 WLA_58 WLB_58 VDD VSS Mem_cnnin2BIT_MUX_0
XI0_6 BLA__0 BLA__1 BLA__2 BLA__3 BLA_0 BLA_1 BLA_2 BLA_3 BLB__0 BLB__1 BLB__2
+  BLB__3 BLB_0 BLB_1 BLB_2 BLB_3 WLA_6 WLB_6 VDD VSS Mem_cnnin2BIT_MUX_0
XI0_60 BLA_0 BLA_1 BLA_2 BLA_3 BLA__0 BLA__1 BLA__2 BLA__3 BLB_0 BLB_1 BLB_2
+  BLB_3 BLB__0 BLB__1 BLB__2 BLB__3 WLA_59 WLB_59 VDD VSS Mem_cnnin2BIT_MUX_1
XI0_61 BLA_0 BLA_1 BLA_2 BLA_3 BLA__0 BLA__1 BLA__2 BLA__3 BLB_0 BLB_1 BLB_2
+  BLB_3 BLB__0 BLB__1 BLB__2 BLB__3 WLA_60 WLB_60 VDD VSS Mem_cnnin2BIT_MUX_0
XI0_62 BLA_0 BLA_1 BLA_2 BLA_3 BLA__0 BLA__1 BLA__2 BLA__3 BLB_0 BLB_1 BLB_2
+  BLB_3 BLB__0 BLB__1 BLB__2 BLB__3 WLA_61 WLB_61 VDD VSS Mem_cnnin2BIT_MUX_1
XI0_63 BLA_0 BLA_1 BLA_2 BLA_3 BLA__0 BLA__1 BLA__2 BLA__3 BLB_0 BLB_1 BLB_2
+  BLB_3 BLB__0 BLB__1 BLB__2 BLB__3 WLA_62 WLB_62 VDD VSS Mem_cnnin2BIT_MUX_0
XI0_64 BLA_0 BLA_1 BLA_2 BLA_3 BLA__0 BLA__1 BLA__2 BLA__3 BLB_0 BLB_1 BLB_2
+  BLB_3 BLB__0 BLB__1 BLB__2 BLB__3 WLA_63 WLB_63 VDD VSS Mem_cnnin2BIT_MUX_1
XI0_7 BLA__0 BLA__1 BLA__2 BLA__3 BLA_0 BLA_1 BLA_2 BLA_3 BLB__0 BLB__1 BLB__2
+  BLB__3 BLB_0 BLB_1 BLB_2 BLB_3 WLA_7 WLB_7 VDD VSS Mem_cnnin2BIT_MUX_1
XI0_8 BLA__0 BLA__1 BLA__2 BLA__3 BLA_0 BLA_1 BLA_2 BLA_3 BLB__0 BLB__1 BLB__2
+  BLB__3 BLB_0 BLB_1 BLB_2 BLB_3 WLA_8 WLB_8 VDD VSS Mem_cnnin2BIT_MUX_0
XI0_9 BLA__0 BLA__1 BLA__2 BLA__3 BLA_0 BLA_1 BLA_2 BLA_3 BLB__0 BLB__1 BLB__2
+  BLB__3 BLB_0 BLB_1 BLB_2 BLB_3 WLA_9 WLB_9 VDD VSS Mem_cnnin2BIT_MUX_1
.ENDS Mem_cnnin2BIT_COL
****
.SUBCKT Mem_cnnin2MCOL_MER4 A0A A0A_ A0B A0B_ BLA_0 BLA_1 BLA_2 BLA_3 BLA__0
+  BLA__1 BLA__2 BLA__3 BLB_0 BLB_1 BLB_2 BLB_3 BLB__0 BLB__1 BLB__2 BLB__3
+  D_0 D_1 GTPA_0 GTPA_1 GTPA_2 GTPB_0 GTPB_1 GTPB_2 OEA_ OEB_ Q_0 Q_1
+  STUBDRA_0 STUBDRA_1 STUBDRA__0 STUBDRA__1 STUBDRB_0 STUBDRB_1 STUBDRB__0
+  STUBDRB__1 STUBDWA_0 STUBDWA_1 STUBDWA__0 STUBDWA__1 STUBDWB_0 STUBDWB_1
+  STUBDWB__0 STUBDWB__1 STUBWEA STUBWEB WLA_0 WLA_1 WLA_2 WLA_3 WLA_4 WLA_5
+  WLA_6 WLA_7 WLA_8 WLA_9 WLA_10 WLA_11 WLA_12 WLA_13 WLA_14 WLA_15 WLA_16
+  WLA_17 WLA_18 WLA_19 WLA_20 WLA_21 WLA_22 WLA_23 WLA_24 WLA_25 WLA_26
+  WLA_27 WLA_28 WLA_29 WLA_30 WLA_31 WLA_32 WLA_33 WLA_34 WLA_35 WLA_36
+  WLA_37 WLA_38 WLA_39 WLA_40 WLA_41 WLA_42 WLA_43 WLA_44 WLA_45 WLA_46
+  WLA_47 WLA_48 WLA_49 WLA_50 WLA_51 WLA_52 WLA_53 WLA_54 WLA_55 WLA_56
+  WLA_57 WLA_58 WLA_59 WLA_60 WLA_61 WLA_62 WLA_63 WLB_0 WLB_1 WLB_2 WLB_3
+  WLB_4 WLB_5 WLB_6 WLB_7 WLB_8 WLB_9 WLB_10 WLB_11 WLB_12 WLB_13 WLB_14
+  WLB_15 WLB_16 WLB_17 WLB_18 WLB_19 WLB_20 WLB_21 WLB_22 WLB_23 WLB_24
+  WLB_25 WLB_26 WLB_27 WLB_28 WLB_29 WLB_30 WLB_31 WLB_32 WLB_33 WLB_34
+  WLB_35 WLB_36 WLB_37 WLB_38 WLB_39 WLB_40 WLB_41 WLB_42 WLB_43 WLB_44
+  WLB_45 WLB_46 WLB_47 WLB_48 WLB_49 WLB_50 WLB_51 WLB_52 WLB_53 WLB_54
+  WLB_55 WLB_56 WLB_57 WLB_58 WLB_59 WLB_60 WLB_61 WLB_62 WLB_63 YPA0_0
+  YPA0_1 YPA0_2 YPA0_3 YPA1_0 YPA1_1 YPA1_2 YPA1_3 YPB0_0 YPB0_1 YPB0_2
+  YPB0_3 YPB1_0 YPB1_1 YPB1_2 YPB1_3 VDD VSS
** Mem_cnnin2MCOL_MER4: 2438 flat devices **
XI0_0 VSS VSS D_0 Q_0 VDD VSS Mem_cnnin2FCBWM4A
XI0_1 D_0 DPN DPU STUBDWA_1 STUBDWA__1 GTPA_0 GTPB_0 OEA_ OEB_ Q_0 SP STUBWEA
+  STUBWEB VDD VSS Mem_cnnin2IOXX_A
XI0_2 DPN DPU STUBDRA_1 STUBDRA__1 STUBDWA_1 STUBDWA__1 GTPA_1 GTPB_1 SP VDD
+  VSS Mem_cnnin2SAX_A
XI0_3 A0A A0A_ A0B A0B_ BLA__0 BLA_0 BLA__1 BLA_1 BLA__2 BLA_2 BLA__3 BLA_3
+  BLB__0 BLB_0 BLB__1 BLB_1 BLB__2 BLB_2 BLB__3 BLB_3 STUBDRA_1 STUBDRA__1
+  STUBDRB__1 STUBDRB_1 STUBDWA_1 STUBDWA__1 STUBDWB__1 STUBDWB_1 GTPA_2
+  GTPB_2 STUBDRA_0 STUBDRA__0 STUBDRB_0 STUBDRB__0 STUBDWA_0 STUBDWA__0
+  STUBDWB_0 STUBDWB__0 YPA0_0 YPA0_1 YPA0_2 YPA0_3 YPA1_0 YPA1_1 YPA1_2
+  YPA1_3 YPB0_0 YPB0_1 YPB0_2 YPB0_3 YPB1_0 YPB1_1 YPB1_2 YPB1_3 VDD VSS
+  Mem_cnnin2MXCD_EVEN_RIGHT
XI0_4 BLA_0 BLA_1 BLA_2 BLA_3 BLA__0 BLA__1 BLA__2 BLA__3 BLB_0 BLB_1 BLB_2
+  BLB_3 BLB__0 BLB__1 BLB__2 BLB__3 WLA_0 WLA_1 WLA_2 WLA_3 WLA_4 WLA_5 WLA_6
+  WLA_7 WLA_8 WLA_9 WLA_10 WLA_11 WLA_12 WLA_13 WLA_14 WLA_15 WLA_16 WLA_17
+  WLA_18 WLA_19 WLA_20 WLA_21 WLA_22 WLA_23 WLA_24 WLA_25 WLA_26 WLA_27
+  WLA_28 WLA_29 WLA_30 WLA_31 WLA_32 WLA_33 WLA_34 WLA_35 WLA_36 WLA_37
+  WLA_38 WLA_39 WLA_40 WLA_41 WLA_42 WLA_43 WLA_44 WLA_45 WLA_46 WLA_47
+  WLA_48 WLA_49 WLA_50 WLA_51 WLA_52 WLA_53 WLA_54 WLA_55 WLA_56 WLA_57
+  WLA_58 WLA_59 WLA_60 WLA_61 WLA_62 WLA_63 WLB_0 WLB_1 WLB_2 WLB_3 WLB_4
+  WLB_5 WLB_6 WLB_7 WLB_8 WLB_9 WLB_10 WLB_11 WLB_12 WLB_13 WLB_14 WLB_15
+  WLB_16 WLB_17 WLB_18 WLB_19 WLB_20 WLB_21 WLB_22 WLB_23 WLB_24 WLB_25
+  WLB_26 WLB_27 WLB_28 WLB_29 WLB_30 WLB_31 WLB_32 WLB_33 WLB_34 WLB_35
+  WLB_36 WLB_37 WLB_38 WLB_39 WLB_40 WLB_41 WLB_42 WLB_43 WLB_44 WLB_45
+  WLB_46 WLB_47 WLB_48 WLB_49 WLB_50 WLB_51 WLB_52 WLB_53 WLB_54 WLB_55
+  WLB_56 WLB_57 WLB_58 WLB_59 WLB_60 WLB_61 WLB_62 WLB_63 VDD VSS
+  Mem_cnnin2BIT_COL
XI1_0 VSS VSS D_1 Q_1 VDD VSS Mem_cnnin2FCBWM4B
XI1_1 D_1 DPN_7 DPU_5 STUBDWB_1 STUBDWB__1 GTPA_0 GTPB_0 OEA_ OEB_ Q_1 SP_3
+  STUBWEA STUBWEB VDD VSS Mem_cnnin2IOXX_B
XI1_2 DPN_7 DPU_5 STUBDRB_1 STUBDRB__1 STUBDWB_1 STUBDWB__1 GTPA_1 GTPB_1 SP_3
+  VDD VSS Mem_cnnin2SAX_B
.ENDS Mem_cnnin2MCOL_MER4
****
.SUBCKT Mem_cnnin2MXCD_ODD_RIGHT A0A A0A_ A0B A0B_ BLA0 BLA0_ BLA1 BLA1_ BLA2
+  BLA2_ BLA3 BLA3_ BLB0 BLB0_ BLB1 BLB1_ BLB2 BLB2_ BLB3 BLB3_ GTPA GTPB
+  STUBDRA_0 STUBDRA_1 STUBDRA__0 STUBDRA__1 STUBDRB_0 STUBDRB_1 STUBDRB__0
+  STUBDRB__1 STUBDWA_0 STUBDWA_1 STUBDWA__0 STUBDWA__1 STUBDWB_0 STUBDWB_1
+  STUBDWB__0 STUBDWB__1 YPA0_0 YPA0_1 YPA0_2 YPA0_3 YPA1_0 YPA1_1 YPA1_2
+  YPA1_3 YPB0_0 YPB0_1 YPB0_2 YPB0_3 YPB1_0 YPB1_1 YPB1_2 YPB1_3 VDD VSS
** Mem_cnnin2MXCD_ODD_RIGHT: 188 flat devices **
XI0_0 A0A A0A A0A_ A0B A0B_ A0A_ BLA2 BLA2_ BLA3 BLA3_ STUBDRA_0 STUBDRA_0
+  STUBDRA__0 STUBDRB_0 STUBDRB__0 STUBDRA_0 STUBDRA__0 STUBDWA_0 STUBDWA_0
+  STUBDWA__0 STUBDWB_0 STUBDWB__0 STUBDWA_0 STUBDWA__0 YPA0_1 VDD GTPA GTPA
+  GTPB STUBDRA_1 STUBDRA__1 STUBDRB_1 STUBDRB__1 STUBDWA_1 STUBDWA__1
+  STUBDWB_1 STUBDWB__1 YPA0_0 YPA0_1 YPA0_2 YPA0_3 YPA1_0 YPA1_1 YPA1_2
+  YPA1_3 YPB0_0 YPB0_1 YPB0_2 YPB0_3 YPB1_0 YPB1_1 YPB1_2 YPB1_3 VDD VSS
+  Mem_cnnin2CD
XI1_0 A0B A0A A0A_ A0B A0B_ A0B_ BLB2 BLB2_ BLB3 BLB3_ STUBDRB_0 STUBDRA_0
+  STUBDRA__0 STUBDRB_0 STUBDRB__0 STUBDRA__0 STUBDRB__0 STUBDWB_0 STUBDWA_0
+  STUBDWA__0 STUBDWB_0 STUBDWB__0 STUBDWA__0 STUBDWB__0 YPB0_1 VDD GTPB GTPA
+  GTPB STUBDRA_0 STUBDRA__0 STUBDRB_0 STUBDRB__0 STUBDWA_0 STUBDWA__0
+  STUBDWB_0 STUBDWB__0 YPA0_0 YPA0_1 YPA0_2 YPA0_3 YPA1_0 YPA1_1 YPA1_2
+  YPA1_3 YPB0_0 YPB0_1 YPB0_2 YPB0_3 YPB1_0 YPB1_1 YPB1_2 YPB1_3 VDD VSS
+  Mem_cnnin2CD
XI2_0 A0B A0A A0A_ A0B A0B_ A0B_ BLB0 BLB0_ BLB1 BLB1_ STUBDRB_0 STUBDRA_0